Infrared Spectrum: Urea
Formula: N H 2 C O N H 2
CAS: 57-13-6
State: solid
Instrument: Bruker Tensor 37 FTIR
Resolution: 0.96450084
Origin: Pacific Northwest National Laboratory Under IARPA Contract
1/cm	Reflectance
7498.99	0.465684
7481.63	0.466357
7464.27	0.459891
7446.91	0.462682
7429.55	0.455334
7412.19	0.448137
7394.83	0.438283
7377.47	0.436691
7360.11	0.421998
7342.74	0.422006
7325.38	0.412906
7308.02	0.410146
7290.66	0.399269
7273.3	0.396703
7255.94	0.388404
7238.58	0.380049
7221.22	0.374369
7203.86	0.366528
7186.5	0.35363
7169.13	0.347839
7151.77	0.343184
7134.41	0.336992
7117.05	0.329635
7099.69	0.329514
7082.33	0.334713
7064.97	0.339894
7047.61	0.341614
7030.25	0.335582
7012.89	0.330302
6995.52	0.31075
6978.16	0.283286
6960.8	0.255537
6943.44	0.220301
6926.08	0.190031
6908.72	0.147364
6891.36	0.127023
6874	0.117768
6856.64	0.108192
6839.28	0.0867893
6821.91	0.0765696
6804.55	0.0838059
6787.19	0.0927481
6769.83	0.094631
6752.47	0.0932513
6735.11	0.0891658
6717.75	0.0865946
6700.39	0.0848814
6683.03	0.0846912
6665.67	0.0847706
6648.3	0.0842834
6630.94	0.0835571
6613.58	0.0865037
6596.22	0.0807309
6578.86	0.0800815
6561.5	0.0771475
6544.14	0.0743986
6526.78	0.0745289
6509.42	0.0878113
6492.06	0.103984
6474.69	0.12678
6457.33	0.141456
6439.97	0.164307
6422.61	0.181042
6405.25	0.200175
6387.89	0.211451
6370.53	0.228407
6353.17	0.245828
6335.81	0.26975
6318.44	0.296848
6301.08	0.322246
6283.72	0.345954
6266.36	0.361635
6249	0.3708
6231.64	0.376916
6214.28	0.38358
6196.92	0.386248
6179.56	0.387327
6162.2	0.383222
6144.83	0.382836
6127.47	0.374214
6110.11	0.364766
6092.75	0.357857
6075.39	0.347634
6058.03	0.342378
6040.67	0.343814
6023.31	0.343413
6005.95	0.344932
5988.59	0.349086
5971.22	0.351296
5953.86	0.353223
5936.5	0.354315
5919.14	0.354635
5901.78	0.355809
5884.42	0.359129
5867.06	0.360101
5849.7	0.360184
5832.34	0.353081
5814.98	0.346425
5797.61	0.339947
5780.25	0.336778
5762.89	0.335511
5745.53	0.334127
5728.17	0.332358
5710.81	0.326242
5693.45	0.319438
5676.09	0.311309
5658.73	0.302631
5641.37	0.293264
5624	0.286075
5606.64	0.281877
5589.28	0.278908
5571.92	0.278224
5554.56	0.278303
5537.2	0.280378
5519.84	0.281703
5502.48	0.281383
5485.12	0.276097
5467.76	0.275138
5450.39	0.275789
5433.03	0.280706
5415.67	0.285296
5398.31	0.28846
5380.95	0.288381
5363.59	0.285444
5346.23	0.282085
5328.87	0.279849
5311.51	0.276353
5294.15	0.268559
5276.78	0.25262
5259.42	0.2324
5242.06	0.206206
5224.7	0.174777
5207.34	0.141229
5189.98	0.107409
5172.62	0.0821403
5155.26	0.0652924
5137.9	0.0522585
5120.53	0.0441995
5103.17	0.0391339
5085.81	0.0360098
5068.45	0.0343991
5051.09	0.0334974
5033.73	0.0331226
5016.37	0.0333116
4999.01	0.0335753
4981.65	0.0351395
4964.29	0.0358574
4946.92	0.0366127
4929.56	0.0366899
4912.2	0.0369869
4894.84	0.0374323
4877.48	0.0394732
4860.12	0.0416438
4842.76	0.0412448
4825.4	0.0408268
4808.04	0.0422655
4790.68	0.0452745
4773.31	0.0507523
4755.95	0.0552962
4738.59	0.0588812
4721.23	0.059704
4703.87	0.0585812
4686.51	0.055533
4669.15	0.0519997
4651.79	0.0473435
4634.43	0.0428091
4617.07	0.0390421
4599.7	0.0380186
4582.34	0.0394433
4564.98	0.0399206
4547.62	0.0389884
4530.26	0.0379744
4512.9	0.0370994
4495.54	0.037499
4478.18	0.0381745
4460.82	0.0388313
4443.46	0.0397483
4426.09	0.0431931
4408.73	0.0452061
4391.37	0.0466443
4374.01	0.0472222
4356.65	0.047316
4339.29	0.0480753
4321.93	0.050233
4304.57	0.052219
4287.21	0.0533311
4269.85	0.0546049
4252.48	0.0548587
4235.12	0.0545957
4217.76	0.0562916
4200.4	0.0568263
4183.04	0.0547841
4165.68	0.0527332
4148.32	0.0524171
4130.96	0.0521667
4113.6	0.0515146
4096.24	0.0509689
4078.87	0.0488257
4061.51	0.0467947
4044.15	0.0427416
4026.79	0.0390444
4009.43	0.0379174
3992.07	0.0385661
3974.71	0.0402698
3957.35	0.0408648
3939.99	0.0407177
3922.62	0.0391444
3905.26	0.0375951
3887.9	0.0387632
3870.54	0.0398338
3853.18	0.0412391
3835.82	0.0419916
3818.46	0.0422966
3801.1	0.0425523
3783.74	0.043166
3766.38	0.0444968
3749.01	0.0460228
3731.65	0.047698
3714.29	0.0476633
3696.93	0.0451743
3679.57	0.0415439
3662.21	0.0370837
3644.85	0.0330111
3627.49	0.0301772
3610.13	0.0283021
3592.77	0.0269827
3575.4	0.0257747
3558.04	0.0247532
3540.68	0.0231901
3523.32	0.0222368
3505.96	0.0211335
3488.6	0.0265002
3471.24	0.0456581
3453.88	0.0484248
3436.52	0.0442289
3419.16	0.0396081
3401.79	0.0351079
3384.43	0.0325282
3367.07	0.0314496
3349.71	0.0360701
3332.35	0.039028
3314.99	0.0373849
3297.63	0.0351873
3280.27	0.034626
3262.91	0.0341383
3245.55	0.0346831
3228.18	0.0343213
3210.82	0.0345244
3193.46	0.0340529
3176.1	0.0336754
3158.74	0.0329096
3141.38	0.0328795
3124.02	0.0325581
3106.66	0.0324358
3089.3	0.0322717
3071.94	0.0321751
3054.57	0.0319024
3037.21	0.0322006
3019.85	0.0318552
3002.49	0.0325865
2985.13	0.0324676
2967.77	0.0328866
2950.41	0.0324345
2933.05	0.0317963
2915.69	0.0317034
2898.33	0.0313986
2880.96	0.0312998
2863.6	0.0309479
2846.24	0.0304466
2828.88	0.0302376
2811.52	0.0299754
2794.16	0.0299377
2776.8	0.0301217
2759.44	0.030139
2742.08	0.0303967
2724.71	0.0300371
2707.35	0.029982
2689.99	0.0301331
2672.63	0.0301224
2655.27	0.0296951
2637.91	0.029602
2620.55	0.0296295
2603.19	0.0300005
2585.83	0.0314416
2568.47	0.0329993
2551.1	0.0353998
2533.74	0.0376731
2516.38	0.0374733
2499.02	0.0364327
2481.66	0.0333139
2464.3	0.0325456
2446.94	0.0359952
2429.58	0.0383117
2412.22	0.0389602
2394.86	0.0383211
2377.49	0.0371751
2360.13	0.0355914
2342.77	0.0338459
2325.41	0.0330068
2308.05	0.0323058
2290.69	0.0317671
2273.33	0.0310377
2255.97	0.0298558
2238.61	0.0285337
2221.25	0.0279816
2203.88	0.0281155
2186.52	0.0276236
2169.16	0.0278743
2151.8	0.02934
2134.44	0.0306827
2117.08	0.0324623
2099.72	0.0323398
2082.36	0.0309322
2065	0.0294845
2047.64	0.0285494
2030.27	0.0280192
2012.91	0.0265449
1995.55	0.02774
1978.19	0.029691
1960.83	0.0307492
1943.47	0.0311827
1926.11	0.0309816
1908.75	0.0303391
1891.39	0.0288838
1874.03	0.0269875
1856.66	0.0245588
1839.3	0.022348
1821.94	0.021166
1804.58	0.020067
1787.22	0.0191896
1769.86	0.0186275
1752.5	0.0228173
1735.14	0.0683174
1717.78	0.13635
1700.41	0.136473
1683.05	0.110127
1665.69	0.0483709
1648.33	0.0576521
1630.97	0.079975
1613.61	0.131914
1596.25	0.113574
1578.89	0.0656595
1561.53	0.0524892
1544.17	0.0453586
1526.8	0.0404906
1509.44	0.0369604
1492.08	0.0331547
1474.72	0.0398766
1457.36	0.049393
1440	0.0395114
1422.64	0.0366159
1405.28	0.0351103
1387.92	0.0337785
1370.56	0.0328599
1353.19	0.0326958
1335.83	0.0313041
1318.47	0.0307555
1301.11	0.0299799
1283.75	0.0291552
1266.39	0.0284202
1249.03	0.0280394
1231.67	0.0275036
1214.31	0.0268018
1196.95	0.0255735
1179.58	0.0257686
1162.22	0.0342055
1144.86	0.0396439
1127.5	0.0345008
1110.14	0.0316049
1092.78	0.0302896
1075.42	0.0300711
1058.06	0.0299908
1040.7	0.0300825
1023.34	0.0296978
1005.97	0.0301932
988.613	0.0301139
971.252	0.029663
953.891	0.0294274
936.53	0.0288341
919.169	0.028495
901.808	0.0282021
884.447	0.0279301
867.086	0.0273037
849.725	0.0267493
832.364	0.0265071
815.003	0.025971
797.642	0.0248643
780.281	0.0256056
762.92	0.0245073
745.559	0.0237993
728.198	0.023538
710.837	0.0236833
693.476	0.0227071
676.115	0.0221411
658.754	0.0219787
641.393	0.0223472
624.032	0.0235566
606.671	0.0294562
